Version 4
SHEET 1 880 680
SYMBOL res 64 96 R0
SYMATTR InstName R1
SYMBOL res 256 16 R0
SYMATTR InstName R2
